Version 4
SHEET 1 960 680
WIRE 288 -16 160 -16
WIRE 288 16 288 -16
WIRE 160 32 160 -16
WIRE 160 32 -64 32
WIRE 192 32 160 32
WIRE -64 112 -64 32
WIRE 192 112 192 32
WIRE 288 128 288 96
WIRE 288 128 240 128
WIRE 336 128 288 128
WIRE 592 128 416 128
WIRE 592 208 592 128
WIRE 192 272 192 208
WIRE -64 288 -64 192
WIRE 592 368 592 288
WIRE 192 416 192 352
FLAG -64 288 0
FLAG 192 416 0
FLAG 592 368 0
SYMBOL pmos 240 208 R180
SYMATTR InstName M1
SYMATTR Value Si1013
SYMBOL res 176 256 R0
SYMATTR InstName R1
SYMATTR Value 330
SYMBOL res 272 0 R0
SYMATTR InstName R2
SYMATTR Value 10k
SYMBOL res 432 112 R90
WINDOW 0 0 56 VBottom 2
WINDOW 3 32 56 VTop 2
SYMATTR InstName R3
SYMATTR Value 100
SYMBOL voltage -64 96 R0
WINDOW 123 0 0 Left 0
WINDOW 39 0 0 Left 0
SYMATTR InstName V1
SYMATTR Value 3.3
SYMBOL voltage 592 192 R0
WINDOW 123 0 0 Left 0
WINDOW 39 0 0 Left 0
SYMATTR InstName V2
SYMATTR Value PULSE(3.3 0 1 10n 10n 5 0 1)
TEXT -96 440 Left 2 !.tran 0 10 0
