Version 4
SHEET 1 2628 2036
WIRE -1024 -80 -1200 -80
WIRE -912 -80 -1024 -80
WIRE -752 -80 -848 -80
WIRE -464 -80 -752 -80
WIRE -368 -80 -464 -80
WIRE -336 -80 -368 -80
WIRE 64 -80 -336 -80
WIRE 336 -80 64 -80
WIRE 336 -64 336 -80
WIRE 480 -48 480 -80
WIRE -1024 0 -1024 -80
WIRE -752 0 -752 -80
WIRE 64 0 64 -80
WIRE 1456 48 1360 48
WIRE 1504 48 1456 48
WIRE 1648 48 1504 48
WIRE 1728 48 1648 48
WIRE 1760 48 1728 48
WIRE -80 64 -288 64
WIRE 336 64 336 16
WIRE 336 64 208 64
WIRE 400 64 336 64
WIRE 480 64 480 32
WIRE 480 64 464 64
WIRE 496 64 480 64
WIRE 576 64 560 64
WIRE 672 64 576 64
WIRE 784 64 672 64
WIRE 960 64 784 64
WIRE 1072 64 960 64
WIRE 1456 64 1456 48
WIRE 1648 64 1648 48
WIRE 1424 112 1360 112
WIRE -1200 128 -1200 -80
WIRE -1024 128 -1024 64
WIRE -752 128 -752 64
WIRE -80 144 -224 144
WIRE 304 144 208 144
WIRE 576 144 576 64
WIRE 576 144 384 144
WIRE 1424 144 1424 112
WIRE 1504 144 1504 128
WIRE 1504 144 1424 144
WIRE 960 160 960 64
WIRE 1072 160 960 160
WIRE -336 176 -336 -80
WIRE 576 176 576 144
WIRE 1456 176 1456 128
WIRE 1456 176 1360 176
WIRE 1504 176 1504 144
WIRE -80 224 -128 224
WIRE 304 224 208 224
WIRE 464 224 304 224
WIRE 304 256 304 224
WIRE -336 272 -336 240
WIRE -1200 304 -1200 208
WIRE 1216 304 1216 224
WIRE -128 320 -128 224
WIRE 64 320 64 288
WIRE 464 320 464 224
WIRE 1504 320 1504 256
WIRE -224 336 -224 144
WIRE 304 384 304 336
WIRE -224 432 -224 400
WIRE -128 448 -128 400
WIRE 304 464 304 448
WIRE 464 464 464 384
WIRE 464 464 304 464
WIRE 304 496 304 464
WIRE -464 528 -464 -80
WIRE -464 528 -528 528
WIRE 784 528 784 64
WIRE 1008 528 784 528
WIRE 1088 528 1008 528
WIRE 1456 528 1344 528
WIRE 1536 528 1456 528
WIRE 1568 528 1536 528
WIRE 1008 560 1008 528
WIRE 1456 560 1456 528
WIRE 1568 560 1568 528
WIRE 1008 656 1008 624
WIRE 1216 656 1216 640
WIRE 1216 656 1008 656
WIRE 1456 656 1456 624
WIRE 1456 656 1216 656
WIRE 1216 688 1216 656
WIRE -288 752 -288 64
WIRE -288 752 -1184 752
WIRE -160 752 -288 752
WIRE 1408 880 1360 880
WIRE 1568 880 1408 880
WIRE 1728 880 1568 880
WIRE 1760 880 1728 880
WIRE -1184 896 -1184 752
WIRE -528 896 -528 528
WIRE 912 896 -528 896
WIRE 992 896 912 896
WIRE 1072 896 992 896
WIRE 1760 912 1760 880
WIRE 1568 928 1568 880
WIRE 912 944 912 896
WIRE 1408 944 1408 880
WIRE 1408 944 1360 944
WIRE 992 992 992 896
WIRE 1072 992 992 992
WIRE 1408 1008 1360 1008
WIRE 1760 1024 1760 992
WIRE 1568 1040 1568 992
WIRE 912 1056 912 1008
WIRE 1216 1104 1216 1056
WIRE -528 1248 -528 896
WIRE -320 1248 -528 1248
WIRE 48 1248 -320 1248
WIRE 160 1248 48 1248
WIRE 256 1248 240 1248
WIRE 432 1280 432 1232
WIRE -320 1312 -320 1248
WIRE 48 1328 48 1248
WIRE -160 1392 -160 752
WIRE -96 1392 -160 1392
WIRE 256 1392 256 1248
WIRE 256 1392 192 1392
WIRE 288 1392 256 1392
WIRE 432 1392 432 1344
WIRE 432 1392 352 1392
WIRE 512 1392 432 1392
WIRE 656 1392 592 1392
WIRE 816 1392 656 1392
WIRE 944 1392 816 1392
WIRE 976 1392 944 1392
WIRE 1344 1392 1264 1392
WIRE 1408 1392 1344 1392
WIRE 1552 1392 1408 1392
WIRE 1616 1392 1552 1392
WIRE 1664 1392 1616 1392
WIRE -320 1408 -320 1376
WIRE 1344 1424 1344 1392
WIRE 1616 1456 1616 1392
WIRE -96 1472 -304 1472
WIRE 352 1472 192 1472
WIRE 656 1472 656 1392
WIRE 656 1472 432 1472
WIRE 816 1472 816 1392
WIRE 1408 1472 1408 1392
WIRE 944 1488 944 1392
WIRE 976 1488 944 1488
WIRE 1344 1488 1264 1488
WIRE -96 1552 -192 1552
WIRE 288 1552 192 1552
WIRE 1616 1552 1616 1536
WIRE 288 1584 288 1552
WIRE 1408 1584 1408 1536
WIRE -304 1616 -304 1472
WIRE -192 1616 -192 1552
WIRE 816 1616 816 1536
WIRE 1120 1632 1120 1552
WIRE 48 1680 48 1616
WIRE 288 1712 288 1664
WIRE -304 1792 -304 1680
WIRE -192 1792 -192 1696
WIRE 288 1824 288 1776
FLAG 304 496 0
FLAG -128 448 0
FLAG -224 432 0
FLAG 576 240 0
FLAG 672 64 vout
FLAG -368 -80 vin
FLAG 64 320 0
FLAG -336 272 0
FLAG -1200 304 0
FLAG 1216 304 0
FLAG 1504 320 0
FLAG 1648 128 0
FLAG 1760 128 0
FLAG 48 1680 0
FLAG -304 1792 0
FLAG -192 1792 0
FLAG 288 1824 0
FLAG 432 1232 0
FLAG 816 1616 0
FLAG -320 1408 0
FLAG 1120 1632 0
FLAG 1408 1584 0
FLAG 1616 1552 0
FLAG 1216 688 0
FLAG 1568 640 0
FLAG -1024 128 0
FLAG -752 128 0
FLAG 912 1056 0
FLAG 1760 1024 0
FLAG 1216 1104 0
FLAG 1568 1040 0
FLAG 1728 48 5vopv
FLAG 1536 528 5vadc
FLAG 1728 880 3.3vdigital
FLAG 1552 1392 -5vopv
FLAG -1184 976 0
FLAG 480 -80 0
SYMBOL PowerProducts\\LT3580 64 144 R0
SYMATTR InstName U1
SYMBOL ind 320 -80 R0
SYMATTR InstName L1
SYMATTR Value 22µ
SYMATTR SpiceLine Rser=250m
SYMBOL schottky 496 80 R270
WINDOW 0 32 32 VTop 2
WINDOW 3 0 32 VBottom 2
SYMATTR InstName D1
SYMATTR Value MBR0520L
SYMATTR Description Diode
SYMATTR Type diode
SYMBOL res 400 128 R90
WINDOW 0 0 56 VBottom 2
WINDOW 3 32 56 VTop 2
SYMATTR InstName R1
SYMATTR Value 68k
SYMBOL cap 560 176 R0
SYMATTR InstName C2
SYMATTR Value 4.7µ
SYMBOL res 288 240 R0
SYMATTR InstName R2
SYMATTR Value 10k
SYMBOL cap 288 384 R0
SYMATTR InstName C3
SYMATTR Value 2.2n
SYMBOL res -144 304 R0
SYMATTR InstName R3
SYMATTR Value 68k
SYMBOL cap -240 336 R0
SYMATTR InstName C4
SYMATTR Value 100n
SYMBOL cap 448 320 R0
SYMATTR InstName C5
SYMATTR Value 47p
SYMBOL cap -352 176 R0
SYMATTR InstName C1
SYMATTR Value 4.7µ
SYMBOL voltage -1200 112 R0
WINDOW 123 0 0 Left 0
WINDOW 39 0 0 Left 0
SYMATTR InstName V1
SYMATTR Value 5
SYMBOL PowerProducts\\LT1763 1216 112 R0
SYMATTR InstName U2
SYMBOL cap 1632 64 R0
WINDOW 39 24 112 Left 2
SYMATTR SpiceLine IC=0
SYMATTR InstName C7
SYMATTR Value 10µ
SYMBOL res 1488 32 R0
SYMATTR InstName R4
SYMATTR Value 30k
SYMBOL res 1488 160 R0
SYMATTR InstName R5
SYMATTR Value 10k
SYMBOL cap 1440 64 R0
SYMATTR InstName C6
SYMATTR Value 1n
SYMBOL res 1744 32 R0
SYMATTR InstName R6
SYMATTR Value 126
SYMBOL PowerProducts\\LT3580 48 1472 R0
SYMATTR InstName U3
SYMBOL ind 144 1264 R270
WINDOW 0 32 56 VTop 2
WINDOW 3 5 56 VBottom 2
SYMATTR InstName L2
SYMATTR Value 22µ
SYMATTR SpiceLine Rser=250m
SYMBOL ind 496 1408 R270
WINDOW 0 32 56 VTop 2
WINDOW 3 5 56 VBottom 2
SYMATTR InstName L3
SYMATTR Value 22µ
SYMATTR SpiceLine Rser=250m
SYMBOL cap 352 1376 R90
WINDOW 0 0 32 VBottom 2
WINDOW 3 32 32 VTop 2
SYMATTR InstName C8
SYMATTR Value 4.7µ
SYMBOL cap -320 1616 R0
SYMATTR InstName C9
SYMATTR Value 100n
SYMBOL res -208 1600 R0
SYMATTR InstName R7
SYMATTR Value 68k
SYMBOL res 272 1568 R0
SYMATTR InstName R8
SYMATTR Value 10k
SYMBOL cap 272 1712 R0
SYMATTR InstName C10
SYMATTR Value 2.2n
SYMBOL res 448 1456 R90
WINDOW 0 0 56 VBottom 2
WINDOW 3 32 56 VTop 2
SYMATTR InstName R9
SYMATTR Value 68k
SYMBOL schottky 448 1344 R180
WINDOW 0 24 64 Left 2
WINDOW 3 24 0 Left 2
SYMATTR InstName D2
SYMATTR Value MBR0520L
SYMATTR Description Diode
SYMATTR Type diode
SYMBOL cap 800 1472 R0
SYMATTR InstName C12
SYMATTR Value 4.7µ
SYMATTR SpiceLine Rser=10m
SYMBOL cap -336 1312 R0
SYMATTR InstName C13
SYMATTR Value 4.7µ
SYMBOL cap 1392 1472 R0
SYMATTR InstName C14
SYMATTR Value 10µ
SYMBOL cap 1360 1488 R180
WINDOW 0 24 56 Left 2
WINDOW 3 24 8 Left 2
SYMATTR InstName C15
SYMATTR Value 1n
SYMBOL res 1600 1440 R0
SYMATTR InstName R12
SYMATTR Value 126
SYMBOL PowerProducts\\LT1964-5 1120 1440 R0
SYMATTR InstName U4
SYMBOL PowerProducts\\LT1790-5 1216 528 R0
SYMATTR InstName U5
SYMBOL cap 1440 560 R0
SYMATTR InstName C11
SYMATTR Value 1µ
SYMBOL cap 992 560 R0
SYMATTR InstName C16
SYMATTR Value 100n
SYMBOL res 1552 544 R0
SYMATTR InstName R10
SYMATTR Value 500
SYMBOL cap -1040 0 R0
SYMATTR InstName C17
SYMATTR Value 4.7µ
SYMATTR SpiceLine Rser=0.5
SYMBOL cap -768 0 R0
SYMATTR InstName C18
SYMATTR Value 22µ
SYMBOL FerriteBead -880 -80 R90
WINDOW 0 -16 0 VBottom 2
SYMATTR InstName L5
SYMATTR Value 230n
SYMATTR SpiceLine Ipk=4 Rser=0.02 Rpar=145 Cpar=6f
SYMBOL PowerProducts\\LT1763-3.3 1216 944 R0
SYMATTR InstName U6
SYMBOL cap 896 944 R0
SYMATTR InstName C19
SYMATTR Value 1µ
SYMBOL res 1744 896 R0
SYMATTR InstName R11
SYMATTR Value 22
SYMBOL cap 1392 944 R0
SYMATTR InstName C20
SYMATTR Value 1n
SYMBOL cap 1552 928 R0
SYMATTR InstName C21
SYMATTR Value 10µ
SYMBOL voltage -1184 880 R0
WINDOW 123 0 0 Left 0
WINDOW 39 0 0 Left 0
SYMATTR InstName V2
SYMATTR Value PULSE(0 3.3 20m 10n 10n 1)
SYMBOL cap 464 48 R90
WINDOW 0 0 32 VBottom 2
WINDOW 3 32 32 VTop 2
SYMATTR InstName C22
SYMATTR Value 4.7µ
SYMBOL ind 464 -64 R0
SYMATTR InstName L4
SYMATTR Value 22µ
SYMATTR SpiceLine Rser=250m
TEXT -1520 168 Left 2 !.tran 0 100m 0 1e-4
